egret/models/tests/transmission_test_instances/dcopf_solution_files/pglib_opf_case30_ieee_dcopf_solution.json
{"elements": {"bus": {"1": {"matpower_bustype": "ref", "area": 1.0, "vm": 1.0, "va": 0.0, "base_kv": 132.0, "zone": 1.0, "v_min": 0.94, "v_max": 1.06, "lmp": 18.421528000000002, "pl": 0}, "2": {"matpower_bustype": "PV", "area": 1.0, "vm": 1.0, "va": -0.07935, "base_kv": 132.0, "zone": 1.0, "v_min": 0.94, "v_max": 1.06, "lmp": 52.182254, "pl": 0.217}, "3": {"matpower_bustype": "PQ", "area": 1.0, "vm": 1.0, "va": -0.128449541656, "base_kv": 132.0, "zone": 1.0, "v_min": 0.94, "v_max": 1.06, "lmp": 37.8814911957, "pl": 0.024}, "4": {"matpower_bustype": "PQ", "area": 1.0, "vm": 1.0, "va": -0.157008692435, "base_kv": 132.0, "zone": 1.0, "v_min": 0.94, "v_max": 1.06, "lmp": 42.3459742775, "pl": 0.076}, "5": {"matpower_bustype": "PV", "area": 1.0, "vm": 1.0, "va": -0.235429954255, "base_kv": 132.0, "zone": 1.0, "v_min": 0.94, "v_max": 1.06, "lmp": 48.447595700700006, "pl": 0.9420000000000001}, "6": {"matpower_bustype": "PQ", "area": 1.0, "vm": 1.0, "va": -0.186061781499, "base_kv": 132.0, "zone": 1.0, "v_min": 0.94, "v_max": 1.06, "lmp": 44.718587414000005, "pl": 0}, "7": {"matpower_bustype": "PQ", "area": 1.0, "vm": 1.0, "va": -0.217460398499, "base_kv": 132.0, "zone": 1.0, "v_min": 0.94, "v_max": 1.06, "lmp": 46.2629241792, "pl": 0.228}, "8": {"matpower_bustype": "PV", "area": 1.0, "vm": 1.0, "va": -0.198496898632, "base_kv": 132.0, "zone": 1.0, "v_min": 0.94, "v_max": 1.06, "lmp": 44.7124757769, "pl": 0.3}, "9": {"matpower_bustype": "PQ", "area": 1.0, "vm": 1.0, "va": -0.241822823113, "base_kv": 1.0, "zone": 1.0, "v_min": 0.94, "v_max": 1.06, "lmp": 44.31662459219999, "pl": 0}, "10": {"matpower_bustype": "PQ", "area": 1.0, "vm": 1.0, "va": -0.271975187523, "base_kv": 33.0, "zone": 1.0, "v_min": 0.94, "v_max": 1.06, "lmp": 44.099266215600004, "pl": 0.057999999999999996}, "11": {"matpower_bustype": "PV", "area": 1.0, "vm": 1.0, "va": -0.241822823113, "base_kv": 11.0, "zone": 1.0, "v_min": 0.94, "v_max": 1.06, "lmp": 44.31662459219999, "pl": 0}, "12": {"matpower_bustype": "PQ", "area": 1.0, "vm": 1.0, "va": -0.257899544008, "base_kv": 33.0, "zone": 1.0, "v_min": 0.94, "v_max": 1.06, "lmp": 43.266680203899995, "pl": 0.11199999999999999}, "13": {"matpower_bustype": "PV", "area": 1.0, "vm": 1.0, "va": -0.257899544008, "base_kv": 11.0, "zone": 1.0, "v_min": 0.94, "v_max": 1.06, "lmp": 43.266680203899995, "pl": 0}, "14": {"matpower_bustype": "PQ", "area": 1.0, "vm": 1.0, "va": -0.277251432501, "base_kv": 33.0, "zone": 1.0, "v_min": 0.94, "v_max": 1.06, "lmp": 43.3867156071, "pl": 0.062}, "15": {"matpower_bustype": "PQ", "area": 1.0, "vm": 1.0, "va": -0.279971916565, "base_kv": 33.0, "zone": 1.0, "v_min": 0.94, "v_max": 1.06, "lmp": 43.480389190699995, "pl": 0.08199999999999999}, "16": {"matpower_bustype": "PQ", "area": 1.0, "vm": 1.0, "va": -0.271007744779, "base_kv": 33.0, "zone": 1.0, "v_min": 0.94, "v_max": 1.06, "lmp": 43.6145978496, "pl": 0.035}, "17": {"matpower_bustype": "PQ", "area": 1.0, "vm": 1.0, "va": -0.27696323878, "base_kv": 33.0, "zone": 1.0, "v_min": 0.94, "v_max": 1.06, "lmp": 43.951309290299996, "pl": 0.09}, "18": {"matpower_bustype": "PQ", "area": 1.0, "vm": 1.0, "va": -0.292533715195, "base_kv": 33.0, "zone": 1.0, "v_min": 0.94, "v_max": 1.06, "lmp": 43.696852501, "pl": 0.032}, "19": {"matpower_bustype": "PQ", "area": 1.0, "vm": 1.0, "va": -0.295827161342, "base_kv": 33.0, "zone": 1.0, "v_min": 0.94, "v_max": 1.06, "lmp": 43.824848197499996, "pl": 0.095}, "20": {"matpower_bustype": "PQ", "area": 1.0, "vm": 1.0, "va": -0.29110055405, "base_kv": 33.0, "zone": 1.0, "v_min": 0.94, "v_max": 1.06, "lmp": 43.892214353600004, "pl": 0.022000000000000002}, "21": {"matpower_bustype": "PQ", "area": 1.0, "vm": 1.0, "va": -0.283392031891, "base_kv": 33.0, "zone": 1.0, "v_min": 0.94, "v_max": 1.06, "lmp": 44.081916043199996, "pl": 0.175}, "22": {"matpower_bustype": "PQ", "area": 1.0, "vm": 1.0, "va": -0.282859328648, "base_kv": 33.0, "zone": 1.0, "v_min": 0.94, "v_max": 1.06, "lmp": 44.0764492332, "pl": 0}, "23": {"matpower_bustype": "PQ", "area": 1.0, "vm": 1.0, "va": -0.28873840267, "base_kv": 33.0, "zone": 1.0, "v_min": 0.94, "v_max": 1.06, "lmp": 43.70607679290001, "pl": 0.032}, "24": {"matpower_bustype": "PQ", "area": 1.0, "vm": 1.0, "va": -0.291815983108, "base_kv": 33.0, "zone": 1.0, "v_min": 0.94, "v_max": 1.06, "lmp": 44.0077384395, "pl": 0.087}, "25": {"matpower_bustype": "PQ", "area": 1.0, "vm": 1.0, "va": -0.283400189811, "base_kv": 33.0, "zone": 1.0, "v_min": 0.94, "v_max": 1.06, "lmp": 44.2491757521, "pl": 0}, "26": {"matpower_bustype": "PQ", "area": 1.0, "vm": 1.0, "va": -0.296700189811, "base_kv": 33.0, "zone": 1.0, "v_min": 0.94, "v_max": 1.06, "lmp": 44.2491757521, "pl": 0.035}, "27": {"matpower_bustype": "PQ", "area": 1.0, "vm": 1.0, "va": -0.270760404085, "base_kv": 33.0, "zone": 1.0, "v_min": 0.94, "v_max": 1.06, "lmp": 44.402237620799994, "pl": 0}, "28": {"matpower_bustype": "PQ", "area": 1.0, "vm": 1.0, "va": -0.197711742125, "base_kv": 132.0, "zone": 1.0, "v_min": 0.94, "v_max": 1.06, "lmp": 44.6833727429, "pl": 0}, "29": {"matpower_bustype": "PQ", "area": 1.0, "vm": 1.0, "va": -0.295947179086, "base_kv": 33.0, "zone": 1.0, "v_min": 0.94, "v_max": 1.06, "lmp": 44.402237620799994, "pl": 0.024}, "30": {"matpower_bustype": "PQ", "area": 1.0, "vm": 1.0, "va": -0.312559347033, "base_kv": 33.0, "zone": 1.0, "v_min": 0.94, "v_max": 1.06, "lmp": 44.402237620799994, "pl": 0.106}}, "load": {"load_2": {"in_service": true, "p_load": 2170.0, "q_load": 1270.0, "bus": "2"}, "load_3": {"in_service": true, "p_load": 240.0, "q_load": 120.0, "bus": "3"}, "load_4": {"in_service": true, "p_load": 760.0, "q_load": 160.0, "bus": "4"}, "load_5": {"in_service": true, "p_load": 9420.0, "q_load": 1900.0, "bus": "5"}, "load_7": {"in_service": true, "p_load": 2280.0, "q_load": 1090.0, "bus": "7"}, "load_8": {"in_service": true, "p_load": 3000.0, "q_load": 3000.0, "bus": "8"}, "load_10": {"in_service": true, "p_load": 580.0, "q_load": 200.0, "bus": "10"}, "load_12": {"in_service": true, "p_load": 1120.0, "q_load": 750.0, "bus": "12"}, "load_14": {"in_service": true, "p_load": 620.0, "q_load": 160.0, "bus": "14"}, "load_15": {"in_service": true, "p_load": 819.9999999999999, "q_load": 250.0, "bus": "15"}, "load_16": {"in_service": true, "p_load": 350.0, "q_load": 180.0, "bus": "16"}, "load_17": {"in_service": true, "p_load": 900.0, "q_load": 580.0, "bus": "17"}, "load_18": {"in_service": true, "p_load": 320.0, "q_load": 90.0, "bus": "18"}, "load_19": {"in_service": true, "p_load": 950.0, "q_load": 340.0, "bus": "19"}, "load_20": {"in_service": true, "p_load": 220.00000000000003, "q_load": 70.0, "bus": "20"}, "load_21": {"in_service": true, "p_load": 1750.0, "q_load": 1120.0, "bus": "21"}, "load_23": {"in_service": true, "p_load": 320.0, "q_load": 160.0, "bus": "23"}, "load_24": {"in_service": true, "p_load": 869.9999999999999, "q_load": 670.0, "bus": "24"}, "load_26": {"in_service": true, "p_load": 350.0, "q_load": 229.99999999999997, "bus": "26"}, "load_29": {"in_service": true, "p_load": 240.0, "q_load": 90.0, "bus": "29"}, "load_30": {"in_service": true, "p_load": 1060.0, "q_load": 190.0, "bus": "30"}}, "shunt": {"shunt_10": {"shunt_type": "fixed", "bs": 1900.0, "gs": 0.0, "bus": "10"}, "shunt_24": {"shunt_type": "fixed", "bs": 430.0, "gs": 0.0, "bus": "24"}}, "generator": {"1": {"bus": "1", "pg": 215.75395984000002, "qg": 500.0, "vg": 1.0, "mbase": 100.0, "in_service": true, "p_min": 0.0, "p_max": 27100.0, "q_min": 0.0, "q_max": 1000.0, "generator_type": "thermal", "p_cost": {"data_type": "cost_curve", "cost_curve_type": "polynomial", "values": {"0": 0.0, "1": 0.18421527999999998, "2": 0.0}}, "startup_cost": 0.0, "shutdown_cost": 0.0}, "2": {"bus": "2", "pg": 67.6460401599, "qg": 300.0, "vg": 1.0, "mbase": 100.0, "in_service": true, "p_min": 0.0, "p_max": 9200.0, "q_min": -4000.0, "q_max": 4600.0, "generator_type": "thermal", "p_cost": {"data_type": "cost_curve", "cost_curve_type": "polynomial", "values": {"0": 0.0, "1": 0.5218225400000001, "2": 0.0}}, "startup_cost": 0.0, "shutdown_cost": 0.0}, "3": {"bus": "5", "pg": 0.0, "qg": 0.0, "vg": 1.0, "mbase": 100.0, "in_service": true, "p_min": 0.0, "p_max": 0.0, "q_min": -4000.0, "q_max": 4000.0, "generator_type": "thermal", "p_cost": {"data_type": "cost_curve", "cost_curve_type": "polynomial", "values": {"0": 0.0, "1": 0.0, "2": 0.0}}, "startup_cost": 0.0, "shutdown_cost": 0.0}, "4": {"bus": "8", "pg": 0.0, "qg": 1500.0, "vg": 1.0, "mbase": 100.0, "in_service": true, "p_min": 0.0, "p_max": 0.0, "q_min": -1000.0, "q_max": 4000.0, "generator_type": "thermal", "p_cost": {"data_type": "cost_curve", "cost_curve_type": "polynomial", "values": {"0": 0.0, "1": 0.0, "2": 0.0}}, "startup_cost": 0.0, "shutdown_cost": 0.0}, "5": {"bus": "11", "pg": 0.0, "qg": 900.0, "vg": 1.0, "mbase": 100.0, "in_service": true, "p_min": 0.0, "p_max": 0.0, "q_min": -600.0, "q_max": 2400.0, "generator_type": "thermal", "p_cost": {"data_type": "cost_curve", "cost_curve_type": "polynomial", "values": {"0": 0.0, "1": 0.0, "2": 0.0}}, "startup_cost": 0.0, "shutdown_cost": 0.0}, "6": {"bus": "13", "pg": 0.0, "qg": 900.0, "vg": 1.0, "mbase": 100.0, "in_service": true, "p_min": 0.0, "p_max": 0.0, "q_min": -600.0, "q_max": 2400.0, "generator_type": "thermal", "p_cost": {"data_type": "cost_curve", "cost_curve_type": "polynomial", "values": {"0": 0.0, "1": 0.0, "2": 0.0}}, "startup_cost": 0.0, "shutdown_cost": 0.0}}, "branch": {"1": {"from_bus": "1", "to_bus": "2", "resistance": 0.0192, "reactance": 0.0575, "charging_susceptance": 0.0528, "branch_type": "line", "rating_long_term": 13800.0, "rating_short_term": 13800.0, "rating_emergency": 13800.0, "in_service": true, "angle_diff_min": -30.0, "angle_diff_max": 30.0, "pf": 138.0, "qf": null, "pt": null, "qt": null}, "2": {"from_bus": "1", "to_bus": "3", "resistance": 0.0452, "reactance": 0.1652, "charging_susceptance": 0.0408, "branch_type": "line", "rating_long_term": 15200.0, "rating_short_term": 15200.0, "rating_emergency": 15200.0, "in_service": true, "angle_diff_min": -30.0, "angle_diff_max": 30.0, "pf": 77.7539598401, "qf": null, "pt": null, "qt": null}, "3": {"from_bus": "2", "to_bus": "4", "resistance": 0.057, "reactance": 0.1737, "charging_susceptance": 0.0368, "branch_type": "line", "rating_long_term": 13900.0, "rating_short_term": 13900.0, "rating_emergency": 13900.0, "in_service": true, "angle_diff_min": -30.0, "angle_diff_max": 30.0, "pf": 44.7085160825, "qf": null, "pt": null, "qt": null}, "4": {"from_bus": "3", "to_bus": "4", "resistance": 0.0132, "reactance": 0.0379, "charging_susceptance": 0.0084, "branch_type": "line", "rating_long_term": 13500.0, "rating_short_term": 13500.0, "rating_emergency": 13500.0, "in_service": true, "angle_diff_min": -30.0, "angle_diff_max": 30.0, "pf": 75.3539598401, "qf": null, "pt": null, "qt": null}, "5": {"from_bus": "2", "to_bus": "5", "resistance": 0.0472, "reactance": 0.1983, "charging_susceptance": 0.0418, "branch_type": "line", "rating_long_term": 14400.0, "rating_short_term": 14400.0, "rating_emergency": 14400.0, "in_service": true, "angle_diff_min": -30.0, "angle_diff_max": 30.0, "pf": 78.7090036585, "qf": null, "pt": null, "qt": null}, "6": {"from_bus": "2", "to_bus": "6", "resistance": 0.0581, "reactance": 0.1763, "charging_susceptance": 0.0374, "branch_type": "line", "rating_long_term": 13900.0, "rating_short_term": 13900.0, "rating_emergency": 13900.0, "in_service": true, "angle_diff_min": -30.0, "angle_diff_max": 30.0, "pf": 60.5285204189, "qf": null, "pt": null, "qt": null}, "7": {"from_bus": "4", "to_bus": "6", "resistance": 0.0119, "reactance": 0.0414, "charging_susceptance": 0.009, "branch_type": "line", "rating_long_term": 14800.0, "rating_short_term": 14800.0, "rating_emergency": 14800.0, "in_service": true, "angle_diff_min": -30.0, "angle_diff_max": 30.0, "pf": 70.17654363119999, "qf": null, "pt": null, "qt": null}, "8": {"from_bus": "5", "to_bus": "7", "resistance": 0.046, "reactance": 0.116, "charging_susceptance": 0.0204, "branch_type": "line", "rating_long_term": 12700.0, "rating_short_term": 12700.0, "rating_emergency": 12700.0, "in_service": true, "angle_diff_min": -30.0, "angle_diff_max": 30.0, "pf": -15.490996341499999, "qf": null, "pt": null, "qt": null}, "9": {"from_bus": "6", "to_bus": "7", "resistance": 0.0267, "reactance": 0.082, "charging_susceptance": 0.017, "branch_type": "line", "rating_long_term": 14000.0, "rating_short_term": 14000.0, "rating_emergency": 14000.0, "in_service": true, "angle_diff_min": -30.0, "angle_diff_max": 30.0, "pf": 38.2909963415, "qf": null, "pt": null, "qt": null}, "10": {"from_bus": "6", "to_bus": "8", "resistance": 0.012, "reactance": 0.042, "charging_susceptance": 0.009, "branch_type": "line", "rating_long_term": 14800.0, "rating_short_term": 14800.0, "rating_emergency": 14800.0, "in_service": true, "angle_diff_min": -30.0, "angle_diff_max": 30.0, "pf": 29.6074217466, "qf": null, "pt": null, "qt": null}, "11": {"from_bus": "6", "to_bus": "9", "resistance": 0.0, "reactance": 0.208, "charging_susceptance": 0.0, "transformer_tap_ratio": 0.978, "transformer_phase_shift": 0.0, "branch_type": "transformer", "rating_long_term": 14200.0, "rating_short_term": 14200.0, "rating_emergency": 14200.0, "in_service": true, "angle_diff_min": -30.0, "angle_diff_max": 30.0, "pf": 27.4112403722, "qf": null, "pt": null, "qt": null}, "12": {"from_bus": "6", "to_bus": "10", "resistance": 0.0, "reactance": 0.556, "charging_susceptance": 0.0, "transformer_tap_ratio": 0.969, "transformer_phase_shift": 0.0, "branch_type": "transformer", "rating_long_term": 5300.0, "rating_short_term": 5300.0, "rating_emergency": 5300.0, "in_service": true, "angle_diff_min": -30.0, "angle_diff_max": 30.0, "pf": 15.9463895183, "qf": null, "pt": null, "qt": null}, "13": {"from_bus": "9", "to_bus": "11", "resistance": 0.0, "reactance": 0.208, "charging_susceptance": 0.0, "transformer_tap_ratio": 1.0, "transformer_phase_shift": 0.0, "branch_type": "transformer", "rating_long_term": 14200.0, "rating_short_term": 14200.0, "rating_emergency": 14200.0, "in_service": true, "angle_diff_min": -30.0, "angle_diff_max": 30.0, "pf": 0.0, "qf": null, "pt": null, "qt": null}, "14": {"from_bus": "9", "to_bus": "10", "resistance": 0.0, "reactance": 0.11, "charging_susceptance": 0.0, "transformer_tap_ratio": 1.0, "transformer_phase_shift": 0.0, "branch_type": "transformer", "rating_long_term": 26700.0, "rating_short_term": 26700.0, "rating_emergency": 26700.0, "in_service": true, "angle_diff_min": -30.0, "angle_diff_max": 30.0, "pf": 27.4112403722, "qf": null, "pt": null, "qt": null}, "15": {"from_bus": "4", "to_bus": "12", "resistance": 0.0, "reactance": 0.256, "charging_susceptance": 0.0, "transformer_tap_ratio": 0.932, "transformer_phase_shift": 0.0, "branch_type": "transformer", "rating_long_term": 11500.0, "rating_short_term": 11500.0, "rating_emergency": 11500.0, "in_service": true, "angle_diff_min": -30.0, "angle_diff_max": 30.0, "pf": 42.2859322914, "qf": null, "pt": null, "qt": null}, "16": {"from_bus": "12", "to_bus": "13", "resistance": 0.0, "reactance": 0.14, "charging_susceptance": 0.0, "transformer_tap_ratio": 1.0, "transformer_phase_shift": 0.0, "branch_type": "transformer", "rating_long_term": 21000.0, "rating_short_term": 21000.0, "rating_emergency": 21000.0, "in_service": true, "angle_diff_min": -30.0, "angle_diff_max": 30.0, "pf": 0.0, "qf": null, "pt": null, "qt": null}, "17": {"from_bus": "12", "to_bus": "14", "resistance": 0.1231, "reactance": 0.2559, "charging_susceptance": 0.0, "branch_type": "line", "rating_long_term": 2900.0, "rating_short_term": 2900.0, "rating_emergency": 2900.0, "in_service": true, "angle_diff_min": -30.0, "angle_diff_max": 30.0, "pf": 7.562285460199999, "qf": null, "pt": null, "qt": null}, "18": {"from_bus": "12", "to_bus": "15", "resistance": 0.0662, "reactance": 0.1304, "charging_susceptance": 0.0, "branch_type": "line", "rating_long_term": 2900.0, "rating_short_term": 2900.0, "rating_emergency": 2900.0, "in_service": true, "angle_diff_min": -30.0, "angle_diff_max": 30.0, "pf": 16.926666071099998, "qf": null, "pt": null, "qt": null}, "19": {"from_bus": "12", "to_bus": "16", "resistance": 0.0945, "reactance": 0.1987, "charging_susceptance": 0.0, "branch_type": "line", "rating_long_term": 3000.0, "rating_short_term": 3000.0, "rating_emergency": 3000.0, "in_service": true, "angle_diff_min": -30.0, "angle_diff_max": 30.0, "pf": 6.596980760189999, "qf": null, "pt": null, "qt": null}, "20": {"from_bus": "14", "to_bus": "15", "resistance": 0.221, "reactance": 0.1997, "charging_susceptance": 0.0, "branch_type": "line", "rating_long_term": 2000.0, "rating_short_term": 2000.0, "rating_emergency": 2000.0, "in_service": true, "angle_diff_min": -30.0, "angle_diff_max": 30.0, "pf": 1.3622854602, "qf": null, "pt": null, "qt": null}, "21": {"from_bus": "16", "to_bus": "17", "resistance": 0.0524, "reactance": 0.1923, "charging_susceptance": 0.0, "branch_type": "line", "rating_long_term": 3800.0, "rating_short_term": 3800.0, "rating_emergency": 3800.0, "in_service": true, "angle_diff_min": -30.0, "angle_diff_max": 30.0, "pf": 3.09698076019, "qf": null, "pt": null, "qt": null}, "22": {"from_bus": "15", "to_bus": "18", "resistance": 0.1073, "reactance": 0.2185, "charging_susceptance": 0.0, "branch_type": "line", "rating_long_term": 2900.0, "rating_short_term": 2900.0, "rating_emergency": 2900.0, "in_service": true, "angle_diff_min": -30.0, "angle_diff_max": 30.0, "pf": 5.74910692461, "qf": null, "pt": null, "qt": null}, "23": {"from_bus": "18", "to_bus": "19", "resistance": 0.0639, "reactance": 0.1292, "charging_susceptance": 0.0, "branch_type": "line", "rating_long_term": 2900.0, "rating_short_term": 2900.0, "rating_emergency": 2900.0, "in_service": true, "angle_diff_min": -30.0, "angle_diff_max": 30.0, "pf": 2.5491069246099998, "qf": null, "pt": null, "qt": null}, "24": {"from_bus": "19", "to_bus": "20", "resistance": 0.034, "reactance": 0.068, "charging_susceptance": 0.0, "branch_type": "line", "rating_long_term": 2900.0, "rating_short_term": 2900.0, "rating_emergency": 2900.0, "in_service": true, "angle_diff_min": -30.0, "angle_diff_max": 30.0, "pf": -6.95089307539, "qf": null, "pt": null, "qt": null}, "25": {"from_bus": "10", "to_bus": "20", "resistance": 0.0936, "reactance": 0.209, "charging_susceptance": 0.0, "branch_type": "line", "rating_long_term": 3000.0, "rating_short_term": 3000.0, "rating_emergency": 3000.0, "in_service": true, "angle_diff_min": -30.0, "angle_diff_max": 30.0, "pf": 9.15089307539, "qf": null, "pt": null, "qt": null}, "26": {"from_bus": "10", "to_bus": "17", "resistance": 0.0324, "reactance": 0.0845, "charging_susceptance": 0.0, "branch_type": "line", "rating_long_term": 3300.0, "rating_short_term": 3300.0, "rating_emergency": 3300.0, "in_service": true, "angle_diff_min": -30.0, "angle_diff_max": 30.0, "pf": 5.90301923981, "qf": null, "pt": null, "qt": null}, "27": {"from_bus": "10", "to_bus": "21", "resistance": 0.0348, "reactance": 0.0749, "charging_susceptance": 0.0, "branch_type": "line", "rating_long_term": 3000.0, "rating_short_term": 3000.0, "rating_emergency": 3000.0, "in_service": true, "angle_diff_min": -30.0, "angle_diff_max": 30.0, "pf": 15.242782868499999, "qf": null, "pt": null, "qt": null}, "28": {"from_bus": "10", "to_bus": "22", "resistance": 0.0727, "reactance": 0.1499, "charging_susceptance": 0.0, "branch_type": "line", "rating_long_term": 2900.0, "rating_short_term": 2900.0, "rating_emergency": 2900.0, "in_service": true, "angle_diff_min": -30.0, "angle_diff_max": 30.0, "pf": 7.26093470679, "qf": null, "pt": null, "qt": null}, "29": {"from_bus": "21", "to_bus": "22", "resistance": 0.0116, "reactance": 0.0236, "charging_susceptance": 0.0, "branch_type": "line", "rating_long_term": 2900.0, "rating_short_term": 2900.0, "rating_emergency": 2900.0, "in_service": true, "angle_diff_min": -30.0, "angle_diff_max": 30.0, "pf": -2.2572171315, "qf": null, "pt": null, "qt": null}, "30": {"from_bus": "15", "to_bus": "23", "resistance": 0.1, "reactance": 0.202, "charging_susceptance": 0.0, "branch_type": "line", "rating_long_term": 2900.0, "rating_short_term": 2900.0, "rating_emergency": 2900.0, "in_service": true, "angle_diff_min": -30.0, "angle_diff_max": 30.0, "pf": 4.33984460663, "qf": null, "pt": null, "qt": null}, "31": {"from_bus": "22", "to_bus": "24", "resistance": 0.115, "reactance": 0.179, "charging_susceptance": 0.0, "branch_type": "line", "rating_long_term": 2600.0, "rating_short_term": 2600.0, "rating_emergency": 2600.0, "in_service": true, "angle_diff_min": -30.0, "angle_diff_max": 30.0, "pf": 5.0037175752900005, "qf": null, "pt": null, "qt": null}, "32": {"from_bus": "23", "to_bus": "24", "resistance": 0.132, "reactance": 0.27, "charging_susceptance": 0.0, "branch_type": "line", "rating_long_term": 2900.0, "rating_short_term": 2900.0, "rating_emergency": 2900.0, "in_service": true, "angle_diff_min": -30.0, "angle_diff_max": 30.0, "pf": 1.13984460663, "qf": null, "pt": null, "qt": null}, "33": {"from_bus": "24", "to_bus": "25", "resistance": 0.1885, "reactance": 0.3292, "charging_susceptance": 0.0, "branch_type": "line", "rating_long_term": 2700.0, "rating_short_term": 2700.0, "rating_emergency": 2700.0, "in_service": true, "angle_diff_min": -30.0, "angle_diff_max": 30.0, "pf": -2.55643781807, "qf": null, "pt": null, "qt": null}, "34": {"from_bus": "25", "to_bus": "26", "resistance": 0.2544, "reactance": 0.38, "charging_susceptance": 0.0, "branch_type": "line", "rating_long_term": 2500.0, "rating_short_term": 2500.0, "rating_emergency": 2500.0, "in_service": true, "angle_diff_min": -30.0, "angle_diff_max": 30.0, "pf": 3.5000000000000004, "qf": null, "pt": null, "qt": null}, "35": {"from_bus": "25", "to_bus": "27", "resistance": 0.1093, "reactance": 0.2087, "charging_susceptance": 0.0, "branch_type": "line", "rating_long_term": 2800.0, "rating_short_term": 2800.0, "rating_emergency": 2800.0, "in_service": true, "angle_diff_min": -30.0, "angle_diff_max": 30.0, "pf": -6.05643781807, "qf": null, "pt": null, "qt": null}, "36": {"from_bus": "28", "to_bus": "27", "resistance": 0.0, "reactance": 0.396, "charging_susceptance": 0.0, "transformer_tap_ratio": 0.968, "transformer_phase_shift": 0.0, "branch_type": "transformer", "rating_long_term": 7500.0, "rating_short_term": 7500.0, "rating_emergency": 7500.0, "in_service": true, "angle_diff_min": -30.0, "angle_diff_max": 30.0, "pf": 19.0564378181, "qf": null, "pt": null, "qt": null}, "37": {"from_bus": "27", "to_bus": "29", "resistance": 0.2198, "reactance": 0.4153, "charging_susceptance": 0.0, "branch_type": "line", "rating_long_term": 2800.0, "rating_short_term": 2800.0, "rating_emergency": 2800.0, "in_service": true, "angle_diff_min": -30.0, "angle_diff_max": 30.0, "pf": 6.06471827635, "qf": null, "pt": null, "qt": null}, "38": {"from_bus": "27", "to_bus": "30", "resistance": 0.3202, "reactance": 0.6027, "charging_susceptance": 0.0, "branch_type": "line", "rating_long_term": 2800.0, "rating_short_term": 2800.0, "rating_emergency": 2800.0, "in_service": true, "angle_diff_min": -30.0, "angle_diff_max": 30.0, "pf": 6.93528172365, "qf": null, "pt": null, "qt": null}, "39": {"from_bus": "29", "to_bus": "30", "resistance": 0.2399, "reactance": 0.4533, "charging_susceptance": 0.0, "branch_type": "line", "rating_long_term": 2800.0, "rating_short_term": 2800.0, "rating_emergency": 2800.0, "in_service": true, "angle_diff_min": -30.0, "angle_diff_max": 30.0, "pf": 3.66471827635, "qf": null, "pt": null, "qt": null}, "40": {"from_bus": "8", "to_bus": "28", "resistance": 0.0636, "reactance": 0.2, "charging_susceptance": 0.0428, "branch_type": "line", "rating_long_term": 14000.0, "rating_short_term": 14000.0, "rating_emergency": 14000.0, "in_service": true, "angle_diff_min": -30.0, "angle_diff_max": 30.0, "pf": -0.39257825338700003, "qf": null, "pt": null, "qt": null}, "41": {"from_bus": "6", "to_bus": "28", "resistance": 0.0169, "reactance": 0.0599, "charging_susceptance": 0.013, "branch_type": "line", "rating_long_term": 14900.0, "rating_short_term": 14900.0, "rating_emergency": 14900.0, "in_service": true, "angle_diff_min": -30.0, "angle_diff_max": 30.0, "pf": 19.4490160715, "qf": null, "pt": null, "qt": null}}}, "system": {"model_name": "pglib_opf_case30_ieee", "mpc_version": "'2'", "baseMVA": 100.0, "reference_bus": "1", "reference_bus_angle": 0.0, "total_cost": 7504.440462021537}}